CM NEC Input File
CE half-wave dipole
GW     1   125  0.00000e+00 -2.40000e-01  0.00000e+00  0.00000e+00  2.40000e-01  0.00000e+00  1.00000e-03
GE     0     0  0.00000e+00  0.00000e+00  0.00000e+00  0.00000e+00  0.00000e+00  0.00000e+00  0.00000e+00
EX     0     1    63      0  1.00000e+00  0.00000e+00  0.00000e+00  0.00000e+00  0.00000e+00  2.00000e-04
RP     0    19    37   1000  0.00000e+00  0.00000e+00  1.00000e+01  1.00000e+01  0.00000e+00  0.00000e+00
EN     0     0     0      0  0.00000e+00  0.00000e+00  0.00000e+00  0.00000e+00  0.00000e+00  0.00000e+00
