CM 12 elemement Yagi
CE
GW  1 9 -330  -462.5  220 -330 462.5  220 3
GW  2 9 -330  -462.5 -220 -330 462.5 -220 3
GW  3 9    0  -430      0    0 430      0 3
GW  4 9   72  -362.5    0   72 362.5    0 3
GW  5 9  307  -357.5    0  307 357.5    0 3
GW  6 9  552  -352.5    0  552 352.5    0 3
GW  7 9  827  -347.5    0  827 347.5    0 3
GW  8 9 1127  -342.5    0 1127 342.5    0 3
GW  9 9 1457  -335      0 1457 335      0 3
GW 10 9 1814  -330      0 1814 330      0 3
GW 11 9 2199  -325      0 2199 325      0 3
GW 12 9 2614  -320      0 2614 320      0 3
GS  0 0 .001
GE  0
FR  0 1 0 0 190.0 .0000 .00     00 .0000 .0000 .0000
EX  0 3 5 0 10. 0. 0. 0. 0. 20
RP  0   72   72       0   0   0   5   5     0   0
EN 
