CM NEC Input File 
CE 3 element Yagi antenna from wikipedia
GW     1    41 -2.50000e-01 -2.50000e-01  0.00000e+00 -2.50000e-01  2.50000e-01  0.00000e+00  1.00000e-03
GW     2    41  0.00000e+00 -2.20000e-01  0.00000e+00  0.00000e+00  2.20000e-01  0.00000e+00  1.00000e-03
GW     3    41  1.30000e-01 -2.15000e-01  0.00000e+00  1.30000e-01  2.15000e-01  0.00000e+00  1.00000e-03
GE     0     0  0.00000e+00  0.00000e+00  0.00000e+00  0.00000e+00  0.00000e+00  0.00000e+00  0.00000e+00
EX     0     2    21      0  1.00000e+00  0.00000e+00  0.00000e+00  0.00000e+00  0.00000e+00  2.00000e-04
RP     0    19    37   1000  0.00000e+00  0.00000e+00  1.00000e+01  1.00000e+01  0.00000e+00  0.00000e+00
EN     0     0     0      0  0.00000e+00  0.00000e+00  0.00000e+00  0.00000e+00  0.00000e+00  0.00000e+00
